<?xml version="1.0" encoding="UTF-8"?>

<!-- generated on 2024-04-29 15:46:57 by Eclipse SUMO netedit Version 1.18.0
<configuration xmlns:xsi="http://www.w3.org/2001/XMLSchema-instance" xsi:noNamespaceSchemaLocation="http://sumo.dlr.de/xsd/neteditConfiguration.xsd">

    <input>
        <sumo-net-file value="C:\Users\adani\OneDrive\Documentos\GitHub\SimulatorSPS\sumo_simulation\Ped_simu_SUMO\V3_ETSI_TR_138_913_V14_3_0_urban.net.xml"/>
    </input>

    <output>
        <output-file value="C:\Users\adani\OneDrive\Documentos\GitHub\SimulatorSPS\sumo_simulation\Ped_simu_SUMO\V3_ETSI_TR_138_913_V14_3_0_urban.net.xml"/>
    </output>

    <processing>
        <geometry.min-radius.fix.railways value="false"/>
        <geometry.max-grade.fix value="false"/>
        <offset.disable-normalization value="true"/>
        <lefthand value="0"/>
    </processing>

    <junctions>
        <no-internal-links value="false"/>
        <no-turnarounds value="true"/>
        <junctions.corner-detail value="5"/>
        <junctions.limit-turn-speed value="5.50"/>
        <rectangular-lane-cut value="0"/>
    </junctions>

    <pedestrian>
        <walkingareas value="0"/>
    </pedestrian>

</configuration>
-->

<net version="1.16" junctionCornerDetail="5" limitTurnSpeed="5.50" xmlns:xsi="http://www.w3.org/2001/XMLSchema-instance" xsi:noNamespaceSchemaLocation="http://sumo.dlr.de/xsd/net_file.xsd">

    <location netOffset="0.00,0.00" convBoundary="0.00,180.00,500.00,680.00" origBoundary="-10000000000.00,-10000000000.00,10000000000.00,10000000000.00" projParameter="!"/>

    <type id="edgeType_0" numLanes="2" speed="16.66" width="7.00" sidewalkWidth="3.00" bikeLaneWidth="1.00"/>
    <type id="edgeType_1"/>

    <edge id=":J10_0" function="internal">
        <lane id=":J10_0_0" index="0" disallow="pedestrian" speed="5.84" length="10.22" width="3.50" shape="255.25,680.00 252.62,683.94 250.00,685.25 247.38,683.94 244.75,680.00"/>
        <lane id=":J10_0_1" index="1" disallow="pedestrian" speed="3.82" length="10.22" width="3.50" shape="251.75,680.00 250.88,681.31 250.00,681.75 249.12,681.31 248.25,680.00"/>
    </edge>
    <edge id=":J10_c0" function="crossing" crossingEdges="-E17 E17">
        <lane id=":J10_c0_0" index="0" allow="pedestrian" speed="2.78" length="14.00" width="4.00" shape="243.00,690.00 257.00,690.00"/>
    </edge>
    <edge id=":J10_w0" function="walkingarea">
        <lane id=":J10_w0_0" index="0" allow="pedestrian" speed="2.78" length="2.50" width="4.00" shape="243.00,684.00 243.00,680.00 240.00,680.00"/>
    </edge>
    <edge id=":J10_w1" function="walkingarea">
        <lane id=":J10_w1_0" index="0" allow="pedestrian" speed="2.78" length="2.50" width="4.00" shape="260.00,680.00 257.00,680.00 257.00,684.00"/>
    </edge>
    <edge id=":J2_0" function="internal">
        <lane id=":J2_0_0" index="0" disallow="pedestrian" speed="5.84" length="10.22" width="3.50" shape="244.75,180.00 247.38,176.06 250.00,174.75 252.62,176.06 255.25,180.00"/>
        <lane id=":J2_0_1" index="1" disallow="pedestrian" speed="3.82" length="10.22" width="3.50" shape="248.25,180.00 249.12,178.69 250.00,178.25 250.88,178.69 251.75,180.00"/>
    </edge>
    <edge id=":J2_c0" function="crossing" crossingEdges="E16 -E16">
        <lane id=":J2_c0_0" index="0" allow="pedestrian" speed="2.78" length="14.00" width="4.00" shape="257.00,170.00 243.00,170.00"/>
    </edge>
    <edge id=":J2_w0" function="walkingarea">
        <lane id=":J2_w0_0" index="0" allow="pedestrian" speed="2.78" length="2.50" width="4.00" shape="257.00,176.00 257.00,180.00 260.00,180.00"/>
    </edge>
    <edge id=":J2_w1" function="walkingarea">
        <lane id=":J2_w1_0" index="0" allow="pedestrian" speed="2.78" length="2.50" width="4.00" shape="240.00,180.00 243.00,180.00 243.00,176.00"/>
    </edge>
    <edge id=":J5_0" function="internal">
        <lane id=":J5_0_0" index="0" disallow="pedestrian" speed="5.84" length="10.22" width="3.50" shape="0.00,438.25 -3.94,435.62 -5.25,433.00 -3.94,430.38 0.00,427.75"/>
        <lane id=":J5_0_1" index="1" disallow="pedestrian" speed="3.82" length="10.22" width="3.50" shape="0.00,434.75 -1.31,433.88 -1.75,433.00 -1.31,432.12 0.00,431.25"/>
    </edge>
    <edge id=":J5_c0" function="crossing" crossingEdges="E4 -E4">
        <lane id=":J5_c0_0" index="0" allow="pedestrian" speed="2.78" length="14.00" width="4.00" shape="-10.00,426.00 -10.00,440.00"/>
    </edge>
    <edge id=":J5_w0" function="walkingarea">
        <lane id=":J5_w0_0" index="0" allow="pedestrian" speed="2.78" length="2.50" width="4.00" shape="-4.00,426.00 0.00,426.00 0.00,423.00"/>
    </edge>
    <edge id=":J5_w1" function="walkingarea">
        <lane id=":J5_w1_0" index="0" allow="pedestrian" speed="2.78" length="2.50" width="4.00" shape="0.00,443.00 0.00,440.00 -4.00,440.00"/>
    </edge>
    <edge id=":J6_0" function="internal">
        <lane id=":J6_0_0" index="0" disallow="pedestrian" speed="6.87" length="5.84" width="3.50" shape="244.75,444.50 244.36,441.77 243.19,439.81 242.50,439.40"/>
    </edge>
    <edge id=":J6_1" function="internal">
        <lane id=":J6_1_0" index="0" disallow="pedestrian" speed="16.67" length="23.00" width="3.50" shape="244.75,444.50 244.75,421.50"/>
        <lane id=":J6_1_1" index="1" disallow="pedestrian" speed="16.67" length="23.00" width="3.50" shape="248.25,444.50 248.25,421.50"/>
    </edge>
    <edge id=":J6_3" function="internal">
        <lane id=":J6_3_0" index="0" disallow="pedestrian" speed="9.73" length="5.86" width="3.50" shape="248.25,444.50 249.08,438.70"/>
    </edge>
    <edge id=":J6_16" function="internal">
        <lane id=":J6_16_0" index="0" disallow="pedestrian" speed="6.87" length="4.24" width="3.50" shape="242.50,439.40 241.23,438.64 238.50,438.25"/>
    </edge>
    <edge id=":J6_17" function="internal">
        <lane id=":J6_17_0" index="0" disallow="pedestrian" speed="9.73" length="15.51" width="3.50" shape="249.08,438.70 251.56,434.56 255.70,432.08 261.50,431.25"/>
    </edge>
    <edge id=":J6_4" function="internal">
        <lane id=":J6_4_0" index="0" disallow="pedestrian" speed="6.87" length="5.84" width="3.50" shape="261.50,438.25 258.77,438.64 256.81,439.81 256.40,440.50"/>
    </edge>
    <edge id=":J6_5" function="internal">
        <lane id=":J6_5_0" index="0" disallow="pedestrian" speed="16.67" length="23.00" width="3.50" shape="261.50,438.25 238.50,438.25"/>
        <lane id=":J6_5_1" index="1" disallow="pedestrian" speed="16.67" length="23.00" width="3.50" shape="261.50,434.75 238.50,434.75"/>
    </edge>
    <edge id=":J6_7" function="internal">
        <lane id=":J6_7_0" index="0" disallow="pedestrian" speed="9.73" length="5.86" width="3.50" shape="261.50,434.75 255.70,433.92"/>
    </edge>
    <edge id=":J6_18" function="internal">
        <lane id=":J6_18_0" index="0" disallow="pedestrian" speed="6.87" length="4.24" width="3.50" shape="256.40,440.50 255.64,441.77 255.25,444.50"/>
    </edge>
    <edge id=":J6_19" function="internal">
        <lane id=":J6_19_0" index="0" disallow="pedestrian" speed="9.73" length="15.51" width="3.50" shape="255.70,433.92 251.56,431.44 249.08,427.30 248.25,421.50"/>
    </edge>
    <edge id=":J6_8" function="internal">
        <lane id=":J6_8_0" index="0" disallow="pedestrian" speed="6.87" length="5.84" width="3.50" shape="255.25,421.50 255.64,424.23 256.81,426.19 257.50,426.60"/>
    </edge>
    <edge id=":J6_9" function="internal">
        <lane id=":J6_9_0" index="0" disallow="pedestrian" speed="16.67" length="23.00" width="3.50" shape="255.25,421.50 255.25,444.50"/>
        <lane id=":J6_9_1" index="1" disallow="pedestrian" speed="16.67" length="23.00" width="3.50" shape="251.75,421.50 251.75,444.50"/>
    </edge>
    <edge id=":J6_11" function="internal">
        <lane id=":J6_11_0" index="0" disallow="pedestrian" speed="9.73" length="5.86" width="3.50" shape="251.75,421.50 250.92,427.30"/>
    </edge>
    <edge id=":J6_20" function="internal">
        <lane id=":J6_20_0" index="0" disallow="pedestrian" speed="6.87" length="4.24" width="3.50" shape="257.50,426.60 258.77,427.36 261.50,427.75"/>
    </edge>
    <edge id=":J6_21" function="internal">
        <lane id=":J6_21_0" index="0" disallow="pedestrian" speed="9.73" length="15.51" width="3.50" shape="250.92,427.30 248.44,431.44 244.30,433.92 238.50,434.75"/>
    </edge>
    <edge id=":J6_12" function="internal">
        <lane id=":J6_12_0" index="0" disallow="pedestrian" speed="6.87" length="5.84" width="3.50" shape="238.50,427.75 241.23,427.36 243.19,426.19 243.60,425.50"/>
    </edge>
    <edge id=":J6_13" function="internal">
        <lane id=":J6_13_0" index="0" disallow="pedestrian" speed="16.67" length="23.00" width="3.50" shape="238.50,427.75 261.50,427.75"/>
        <lane id=":J6_13_1" index="1" disallow="pedestrian" speed="16.67" length="23.00" width="3.50" shape="238.50,431.25 261.50,431.25"/>
    </edge>
    <edge id=":J6_15" function="internal">
        <lane id=":J6_15_0" index="0" disallow="pedestrian" speed="9.73" length="5.86" width="3.50" shape="238.50,431.25 244.30,432.08"/>
    </edge>
    <edge id=":J6_22" function="internal">
        <lane id=":J6_22_0" index="0" disallow="pedestrian" speed="6.87" length="4.24" width="3.50" shape="243.60,425.50 244.36,424.23 244.75,421.50"/>
    </edge>
    <edge id=":J6_23" function="internal">
        <lane id=":J6_23_0" index="0" disallow="pedestrian" speed="9.73" length="15.51" width="3.50" shape="244.30,432.08 248.44,434.56 250.92,438.70 251.75,444.50"/>
    </edge>
    <edge id=":J6_c0" function="crossing" crossingEdges="E17 -E17">
        <lane id=":J6_c0_0" index="0" allow="pedestrian" speed="2.78" length="14.00" width="8.00" shape="257.00,447.50 243.00,447.50"/>
    </edge>
    <edge id=":J6_c1" function="crossing" crossingEdges="E5 -E5">
        <lane id=":J6_c1_0" index="0" allow="pedestrian" speed="2.78" length="14.00" width="8.00" shape="264.50,426.00 264.50,440.00"/>
    </edge>
    <edge id=":J6_c2" function="crossing" crossingEdges="-E16 E16">
        <lane id=":J6_c2_0" index="0" allow="pedestrian" speed="2.78" length="14.00" width="8.00" shape="243.00,418.50 257.00,418.50"/>
    </edge>
    <edge id=":J6_c3" function="crossing" crossingEdges="-E4 E4">
        <lane id=":J6_c3_0" index="0" allow="pedestrian" speed="2.78" length="14.00" width="8.00" shape="235.50,440.00 235.50,426.00"/>
    </edge>
    <edge id=":J6_w0" function="walkingarea">
        <lane id=":J6_w0_0" index="0" allow="pedestrian" speed="2.78" length="3.67" width="6.00" shape="238.50,440.00 238.50,443.00 240.00,444.50 243.00,444.50 242.88,443.13 242.50,442.00 241.88,441.12 241.00,440.50 239.88,440.12 238.50,440.12"/> <!--  238.50,440.00 238.50,443.00 240.00,444.50 243.00,444.50 242.88,443.13 242.50,442.00 241.88,441.12 241.00,440.50 239.88,440.12"/> -->
    </edge>
    <edge id=":J6_w1" function="walkingarea">
        <lane id=":J6_w1_0" index="0" allow="pedestrian" speed="2.78" length="3.67" width="6.00" shape="257.00,444.50 260.00,444.50 261.50,443.00 261.50,440.00 260.13,440.13 259.00,440.50 258.12,441.12 257.50,442.00 257.12,443.12 257.00,443.12"/> <!--  257.00,444.50 260.00,444.50 261.50,443.00 261.50,440.00 260.13,440.13 259.00,440.50 258.12,441.12 257.50,442.00 257.12,443.12"/> -->
    </edge>
    <edge id=":J6_w2" function="walkingarea">
        <lane id=":J6_w2_0" index="0" allow="pedestrian" speed="2.78" length="3.67" width="6.00" shape="261.50,426.00 261.50,423.00 260.00,421.50 257.00,421.50 257.13,422.88 257.50,424.00 258.12,424.88 259.00,425.50 260.12,425.88 261.50,425.88"/> <!-- 261.50,426.00 261.50,423.00 260.00,421.50 257.00,421.50 257.13,422.88 257.50,424.00 258.12,424.88 259.00,425.50 260.12,425.88"/> -->
    </edge>
    <edge id=":J6_w3" function="walkingarea">
        <lane id=":J6_w3_0" index="0" allow="pedestrian" speed="2.78" length="3.67" width="6.00" shape="243.00,421.50 240.00,421.50 238.50,423.00 238.50,426.00 239.88,425.88 241.00,425.50 241.88,424.88 242.50,424.00 242.88,422.88 243.00,422.88"/> <!--  243.00,421.50 240.00,421.50 238.50,423.00 238.50,426.00 239.88,425.88 241.00,425.50 241.88,424.88 242.50,424.00 242.88,422.88"/> -->
    </edge>
    <edge id=":J7_0" function="internal">
        <lane id=":J7_0_0" index="0" disallow="pedestrian" speed="5.84" length="10.22" width="3.50" shape="500.00,427.75 503.94,430.38 505.25,433.00 503.94,435.62 500.00,438.25"/>
        <lane id=":J7_0_1" index="1" disallow="pedestrian" speed="3.82" length="10.22" width="3.50" shape="500.00,431.25 501.31,432.12 501.75,433.00 501.31,433.88 500.00,434.75"/>
    </edge>
    <edge id=":J7_c0" function="crossing" crossingEdges="-E5 E5">
        <lane id=":J7_c0_0" index="0" allow="pedestrian" speed="2.78" length="14.00" width="4.00" shape="510.00,440.00 510.00,426.00"/>
    </edge>
    <edge id=":J7_w0" function="walkingarea">
        <lane id=":J7_w0_0" index="0" allow="pedestrian" speed="2.78" length="2.50" width="4.00" shape="504.00,440.00 500.00,440.00 500.00,443.00"/>
    </edge>
    <edge id=":J7_w1" function="walkingarea">
        <lane id=":J7_w1_0" index="0" allow="pedestrian" speed="2.78" length="2.50" width="4.00" shape="500.00,423.00 500.00,426.00 504.00,426.00"/>
    </edge>

    <edge id="-E16" from="J6" to="J2" priority="-1" length="250.00">
        <lane id="-E16_0" index="0" allow="pedestrian" speed="16.67" length="250.00" width="3.00" shape="241.50,421.50 241.50,180.00"/>
        <lane id="-E16_1" index="1" disallow="pedestrian" speed="16.67" length="250.00" width="3.50" shape="244.75,421.50 244.75,180.00"/>
        <lane id="-E16_2" index="2" disallow="pedestrian" speed="16.67" length="250.00" width="3.50" shape="248.25,421.50 248.25,180.00"/>
    </edge>
    <edge id="-E17" from="J10" to="J6" priority="-1" length="250.00">
        <lane id="-E17_0" index="0" allow="pedestrian" speed="16.67" length="250.00" width="3.50" shape="241.50,680.00 241.50,452.50"/>
        <lane id="-E17_1" index="1" disallow="pedestrian" speed="16.67" length="250.00" width="3.50" shape="244.75,680.00 244.75,452.50"/>
        <lane id="-E17_2" index="2" disallow="pedestrian" speed="16.67" length="250.00" width="3.50" shape="248.25,680.00 248.25,452.50"/>
    </edge>
    <edge id="-E4" from="J6" to="J5" priority="-1">
        <lane id="-E4_0" index="0" allow="pedestrian" speed="16.67" length="238.50" width="3.00" shape="238.50,441.50 0.00,441.50"/>
        <lane id="-E4_1" index="1" disallow="pedestrian" speed="16.67" length="238.50" width="3.50" shape="238.50,438.25 0.00,438.25"/>
        <lane id="-E4_2" index="2" disallow="pedestrian" speed="16.67" length="238.50" width="3.50" shape="238.50,434.75 0.00,434.75"/>
    </edge>
    <edge id="-E5" from="J7" to="J6" priority="-1">
        <lane id="-E5_0" index="0" allow="pedestrian" speed="16.67" length="238.50" width="3.00" shape="500.00,441.50 269.50,441.50"/>
        <lane id="-E5_1" index="1" disallow="pedestrian" speed="16.67" length="238.50" width="3.50" shape="500.00,438.25 269.50,438.25"/>
        <lane id="-E5_2" index="2" disallow="pedestrian" speed="16.67" length="238.50" width="3.50" shape="500.00,434.75 269.50,434.75"/>
    </edge>
    <edge id="E16" from="J2" to="J6" priority="-1" length="250.00">
        <lane id="E16_0" index="0" allow="pedestrian" speed="16.67" length="250.00" width="3.00" shape="258.50,180.00 258.50,413.50"/>
        <lane id="E16_1" index="1" disallow="pedestrian" speed="16.67" length="250.00" width="3.50" shape="255.25,180.00 255.25,413.50"/>
        <lane id="E16_2" index="2" disallow="pedestrian" speed="16.67" length="250.00" width="3.50" shape="251.75,180.00 251.75,413.50"/>
    </edge>
    <edge id="E17" from="J6" to="J10" priority="-1" length="250.00">
        <lane id="E17_0" index="0" allow="pedestrian" speed="16.67" length="250.00" width="3.00" shape="258.50,444.50 258.50,680.00"/>
        <lane id="E17_1" index="1" disallow="pedestrian" speed="16.67" length="250.00" width="3.50" shape="255.25,444.50 255.25,680.00"/>
        <lane id="E17_2" index="2" disallow="pedestrian" speed="16.67" length="250.00" width="3.50" shape="251.75,444.50 251.75,680.00"/>
    </edge>
    <edge id="E4" from="J5" to="J6" priority="-1">
        <lane id="E4_0" index="0" allow="pedestrian" speed="16.67" length="238.50" width="3.50" shape="0.00,424.50 230.50,424.50"/>
        <lane id="E4_1" index="1" disallow="pedestrian" speed="16.67" length="238.50" width="3.50" shape="0.00,427.75 230.50,427.75"/>
        <lane id="E4_2" index="2" disallow="pedestrian" speed="16.67" length="238.50" width="3.50" shape="0.00,431.25 230.50,431.25"/>
    </edge>
    <edge id="E5" from="J6" to="J7" priority="-1">
        <lane id="E5_0" index="0" allow="pedestrian" speed="16.67" length="238.50" width="3.00" shape="261.50,424.50 500.00,424.50"/>
        <lane id="E5_1" index="1" disallow="pedestrian" speed="16.67" length="238.50" width="3.50" shape="261.50,427.75 500.00,427.75"/>
        <lane id="E5_2" index="2" disallow="pedestrian" speed="16.67" length="238.50" width="3.50" shape="261.50,431.25 500.00,431.25"/>
    </edge>

    <tlLogic id="J6" type="static" programID="0" offset="0">
        <phase duration="36" state="gGGgrrrrgGGgrrrrrGrG"/>
        <phase duration="5"  state="gGGgrrrrgGGgrrrrrrrr"/>
        <phase duration="4"  state="yyyyrrrryyyyrrrrrrrr"/>
        <phase duration="36" state="rrrrgGGgrrrrgGGgGrGr"/>
        <phase duration="5"  state="rrrrgGGgrrrrgGGgrrrr"/>
        <phase duration="4"  state="rrrryyyyrrrryyyyrrrr"/>
    </tlLogic>

    <junction id="J10" type="priority" x="250.00" y="680.00" incLanes="E17_0 E17_1 E17_2 :J10_w0_0" intLanes=":J10_0_0 :J10_0_1 :J10_c0_0" shape="250.00,680.00 260.00,680.00 250.00,680.00">
        <request index="0" response="100" foes="100" cont="0"/>
        <request index="1" response="100" foes="100" cont="0"/>
        <request index="2" response="000" foes="011" cont="0"/>
    </junction>
    <junction id="J2" type="priority" x="250.00" y="180.00" incLanes="-E16_0 -E16_1 -E16_2 :J2_w0_0" intLanes=":J2_0_0 :J2_0_1 :J2_c0_0" shape="250.00,180.00 240.00,180.00 250.00,180.00">
        <request index="0" response="100" foes="100" cont="0"/>
        <request index="1" response="100" foes="100" cont="0"/>
        <request index="2" response="000" foes="011" cont="0"/>
    </junction>
    <junction id="J5" type="priority" x="0.00" y="433.00" incLanes="-E4_0 -E4_1 -E4_2 :J5_w0_0" intLanes=":J5_0_0 :J5_0_1 :J5_c0_0" shape="0.00,433.00 0.00,443.00 0.00,433.00">
        <request index="0" response="100" foes="100" cont="0"/>
        <request index="1" response="100" foes="100" cont="0"/>
        <request index="2" response="000" foes="011" cont="0"/>
    </junction>
    <junction id="J6" type="traffic_light" x="250.00" y="433.00" incLanes="-E17_0 -E17_1 -E17_2 -E5_0 -E5_1 -E5_2 E16_0 E16_1 E16_2 E4_0 E4_1 E4_2 :J6_w1_0 :J6_w2_0 :J6_w3_0 :J6_w0_0" intLanes=":J6_16_0 :J6_1_0 :J6_1_1 :J6_17_0 :J6_18_0 :J6_5_0 :J6_5_1 :J6_19_0 :J6_20_0 :J6_9_0 :J6_9_1 :J6_21_0 :J6_22_0 :J6_13_0 :J6_13_1 :J6_23_0 :J6_c0_0 :J6_c1_0 :J6_c2_0 :J6_c3_0" shape="240.00,444.50 260.00,444.50 260.17,443.67 260.38,443.38 260.67,443.17 261.04,443.04 261.50,443.00 261.50,423.00 260.67,422.83 260.38,422.62 260.17,422.33 260.04,421.96 260.00,421.50 240.00,421.50 239.83,422.33 239.62,422.62 239.33,422.83 238.96,422.96 238.50,423.00 238.50,443.00 239.33,443.17 239.62,443.38 239.83,443.67 239.96,444.04">
        <request index="0"  response="10010000000000000000" foes="10010000000001100000" cont="1"/>
        <request index="1"  response="01011001000010000000" foes="01011111100011100000" cont="0"/>
        <request index="2"  response="01011001000010000000" foes="01011111100011100000" cont="0"/>
        <request index="3"  response="00111000011010000000" foes="00111110011011100000" cont="1"/>
        <request index="4"  response="00110000011000000000" foes="00110000011000000000" cont="1"/>
        <request index="5"  response="10100000111000001111" foes="10101000111000001111" cont="0"/>
        <request index="6"  response="10100000111000001111" foes="10101000111000001111" cont="0"/>
        <request index="7"  response="01100110111000001110" foes="01100110111000001110" cont="1"/>
        <request index="8"  response="01100000000000000000" foes="01100110000000000000" cont="1"/>
        <request index="9"  response="01011000000010010000" foes="01011110000011111000" cont="0"/>
        <request index="10" response="01011000000010010000" foes="01011110000011111000" cont="0"/>
        <request index="11" response="11001000000010000110" foes="11001110000011100110" cont="1"/>
        <request index="12" response="11000000000000000110" foes="11000000000000000110" cont="1"/>
        <request index="13" response="10100000111100001110" foes="10100000111110001110" cont="0"/>
        <request index="14" response="10100000111100001110" foes="10100000111110001110" cont="0"/>
        <request index="15" response="10010000111001101110" foes="10010000111001101110" cont="1"/>
        <request index="16" response="00000000000000000000" foes="00001000011000011111" cont="0"/>
        <request index="17" response="00000000000000000000" foes="00000110000111111000" cont="0"/>
        <request index="18" response="00000000000000000000" foes="00000001111110000110" cont="0"/>
        <request index="19" response="00000000000000000000" foes="00001111100001100001" cont="0"/>
    </junction>
    <junction id="J7" type="priority" x="500.00" y="433.00" incLanes="E5_0 E5_1 E5_2 :J7_w0_0" intLanes=":J7_0_0 :J7_0_1 :J7_c0_0" shape="500.00,433.00 500.00,423.00 500.00,433.00">
        <request index="0" response="100" foes="100" cont="0"/>
        <request index="1" response="100" foes="100" cont="0"/>
        <request index="2" response="000" foes="011" cont="0"/>
    </junction>

    <junction id=":J6_16_0" type="internal" x="242.50" y="439.40" incLanes=":J6_0_0" intLanes=":J6_5_0 :J6_5_1 :J6_11_0 :J6_c0_0 :J6_c3_0"/>
    <junction id=":J6_17_0" type="internal" x="249.08" y="438.70" incLanes=":J6_3_0 E16_1 E16_2" intLanes=":J6_5_0 :J6_5_1 :J6_7_0 :J6_8_0 :J6_9_0 :J6_9_1 :J6_13_0 :J6_13_1 :J6_15_0 :J6_c0_0 :J6_c1_0"/>
    <junction id=":J6_18_0" type="internal" x="256.40" y="440.50" incLanes=":J6_4_0" intLanes=":J6_9_0 :J6_9_1 :J6_15_0 :J6_c0_0 :J6_c1_0"/>
    <junction id=":J6_19_0" type="internal" x="255.70" y="433.92" incLanes=":J6_7_0 E4_1 E4_2" intLanes=":J6_1_0 :J6_1_1 :J6_3_0 :J6_9_0 :J6_9_1 :J6_11_0 :J6_12_0 :J6_13_0 :J6_13_1 :J6_c1_0 :J6_c2_0"/>
    <junction id=":J6_20_0" type="internal" x="257.50" y="426.60" incLanes=":J6_8_0" intLanes=":J6_3_0 :J6_13_0 :J6_13_1 :J6_c1_0 :J6_c2_0"/>
    <junction id=":J6_21_0" type="internal" x="250.92" y="427.30" incLanes=":J6_11_0 -E17_1 -E17_2" intLanes=":J6_0_0 :J6_1_0 :J6_1_1 :J6_5_0 :J6_5_1 :J6_7_0 :J6_13_0 :J6_13_1 :J6_15_0 :J6_c2_0 :J6_c3_0"/>
    <junction id=":J6_22_0" type="internal" x="243.60" y="425.50" incLanes=":J6_12_0" intLanes=":J6_1_0 :J6_1_1 :J6_7_0 :J6_c2_0 :J6_c3_0"/>
    <junction id=":J6_23_0" type="internal" x="244.30" y="432.08" incLanes=":J6_15_0 -E5_1 -E5_2" intLanes=":J6_1_0 :J6_1_1 :J6_3_0 :J6_4_0 :J6_5_0 :J6_5_1 :J6_9_0 :J6_9_1 :J6_11_0 :J6_c0_0 :J6_c3_0"/>

    <connection from="-E16" to="E16" fromLane="1" toLane="1" via=":J2_0_0" dir="t" state="m"/>
    <connection from="-E16" to="E16" fromLane="2" toLane="2" via=":J2_0_1" dir="t" state="m"/>
    <connection from="-E17" to="-E4" fromLane="1" toLane="1" via=":J6_0_0" tl="J6" linkIndex="0" dir="r" state="o"/>
    <connection from="-E17" to="-E16" fromLane="1" toLane="1" via=":J6_1_0" tl="J6" linkIndex="1" dir="s" state="o"/>
    <connection from="-E17" to="-E16" fromLane="2" toLane="2" via=":J6_1_1" tl="J6" linkIndex="2" dir="s" state="o"/>
    <connection from="-E17" to="E5" fromLane="2" toLane="2" via=":J6_3_0" tl="J6" linkIndex="3" dir="l" state="o"/>
    <connection from="-E4" to="E4" fromLane="1" toLane="1" via=":J5_0_0" dir="t" state="m"/>
    <connection from="-E4" to="E4" fromLane="2" toLane="2" via=":J5_0_1" dir="t" state="m"/>
    <connection from="-E5" to="E17" fromLane="1" toLane="1" via=":J6_4_0" tl="J6" linkIndex="4" dir="r" state="o"/>
    <connection from="-E5" to="-E4" fromLane="1" toLane="1" via=":J6_5_0" tl="J6" linkIndex="5" dir="s" state="o"/>
    <connection from="-E5" to="-E4" fromLane="2" toLane="2" via=":J6_5_1" tl="J6" linkIndex="6" dir="s" state="o"/>
    <connection from="-E5" to="-E16" fromLane="2" toLane="2" via=":J6_7_0" tl="J6" linkIndex="7" dir="l" state="o"/>
    <connection from="E16" to="E5" fromLane="1" toLane="1" via=":J6_8_0" tl="J6" linkIndex="8" dir="r" state="o"/>
    <connection from="E16" to="E17" fromLane="1" toLane="1" via=":J6_9_0" tl="J6" linkIndex="9" dir="s" state="o"/>
    <connection from="E16" to="E17" fromLane="2" toLane="2" via=":J6_9_1" tl="J6" linkIndex="10" dir="s" state="o"/>
    <connection from="E16" to="-E4" fromLane="2" toLane="2" via=":J6_11_0" tl="J6" linkIndex="11" dir="l" state="o"/>
    <connection from="E17" to="-E17" fromLane="1" toLane="1" via=":J10_0_0" dir="t" state="m"/>
    <connection from="E17" to="-E17" fromLane="2" toLane="2" via=":J10_0_1" dir="t" state="m"/>
    <connection from="E4" to="-E16" fromLane="1" toLane="1" via=":J6_12_0" tl="J6" linkIndex="12" dir="r" state="o"/>
    <connection from="E4" to="E5" fromLane="1" toLane="1" via=":J6_13_0" tl="J6" linkIndex="13" dir="s" state="o"/>
    <connection from="E4" to="E5" fromLane="2" toLane="2" via=":J6_13_1" tl="J6" linkIndex="14" dir="s" state="o"/>
    <connection from="E4" to="E17" fromLane="2" toLane="2" via=":J6_15_0" tl="J6" linkIndex="15" dir="l" state="o"/>
    <connection from="E5" to="-E5" fromLane="1" toLane="1" via=":J7_0_0" dir="t" state="m"/>
    <connection from="E5" to="-E5" fromLane="2" toLane="2" via=":J7_0_1" dir="t" state="m"/>

    <connection from=":J10_0" to="-E17" fromLane="0" toLane="1" dir="t" state="M"/>
    <connection from=":J10_0" to="-E17" fromLane="1" toLane="2" dir="t" state="M"/>
    <connection from=":J2_0" to="E16" fromLane="0" toLane="1" dir="t" state="M"/>
    <connection from=":J2_0" to="E16" fromLane="1" toLane="2" dir="t" state="M"/>
    <connection from=":J5_0" to="E4" fromLane="0" toLane="1" dir="t" state="M"/>
    <connection from=":J5_0" to="E4" fromLane="1" toLane="2" dir="t" state="M"/>
    <connection from=":J6_0" to="-E4" fromLane="0" toLane="1" via=":J6_16_0" dir="r" state="m"/>
    <connection from=":J6_16" to="-E4" fromLane="0" toLane="1" dir="r" state="m"/>
    <connection from=":J6_1" to="-E16" fromLane="0" toLane="1" dir="s" state="M"/>
    <connection from=":J6_1" to="-E16" fromLane="1" toLane="2" dir="s" state="M"/>
    <connection from=":J6_3" to="E5" fromLane="0" toLane="2" via=":J6_17_0" dir="l" state="m"/>
    <connection from=":J6_17" to="E5" fromLane="0" toLane="2" dir="l" state="m"/>
    <connection from=":J6_4" to="E17" fromLane="0" toLane="1" via=":J6_18_0" dir="r" state="m"/>
    <connection from=":J6_18" to="E17" fromLane="0" toLane="1" dir="r" state="m"/>
    <connection from=":J6_5" to="-E4" fromLane="0" toLane="1" dir="s" state="M"/>
    <connection from=":J6_5" to="-E4" fromLane="1" toLane="2" dir="s" state="M"/>
    <connection from=":J6_7" to="-E16" fromLane="0" toLane="2" via=":J6_19_0" dir="l" state="m"/>
    <connection from=":J6_19" to="-E16" fromLane="0" toLane="2" dir="l" state="m"/>
    <connection from=":J6_8" to="E5" fromLane="0" toLane="1" via=":J6_20_0" dir="r" state="m"/>
    <connection from=":J6_20" to="E5" fromLane="0" toLane="1" dir="r" state="m"/>
    <connection from=":J6_9" to="E17" fromLane="0" toLane="1" dir="s" state="M"/>
    <connection from=":J6_9" to="E17" fromLane="1" toLane="2" dir="s" state="M"/>
    <connection from=":J6_11" to="-E4" fromLane="0" toLane="2" via=":J6_21_0" dir="l" state="m"/>
    <connection from=":J6_21" to="-E4" fromLane="0" toLane="2" dir="l" state="m"/>
    <connection from=":J6_12" to="-E16" fromLane="0" toLane="1" via=":J6_22_0" dir="r" state="m"/>
    <connection from=":J6_22" to="-E16" fromLane="0" toLane="1" dir="r" state="m"/>
    <connection from=":J6_13" to="E5" fromLane="0" toLane="1" dir="s" state="M"/>
    <connection from=":J6_13" to="E5" fromLane="1" toLane="2" dir="s" state="M"/>
    <connection from=":J6_15" to="E17" fromLane="0" toLane="2" via=":J6_23_0" dir="l" state="m"/>
    <connection from=":J6_23" to="E17" fromLane="0" toLane="2" dir="l" state="m"/>
    <connection from=":J7_0" to="-E5" fromLane="0" toLane="1" dir="t" state="M"/>
    <connection from=":J7_0" to="-E5" fromLane="1" toLane="2" dir="t" state="M"/>

    <connection from=":J10_c0" to=":J10_w1" fromLane="0" toLane="0" dir="s" state="M"/>
    <connection from=":J10_w0" to=":J10_c0" fromLane="0" toLane="0" dir="s" state="M"/>
    <connection from=":J10_w0" to="-E17" fromLane="0" toLane="0" dir="s" state="M"/>
    <connection from="E17" to=":J10_w1" fromLane="0" toLane="0" dir="s" state="M"/>
    <connection from=":J2_c0" to=":J2_w1" fromLane="0" toLane="0" dir="s" state="M"/>
    <connection from=":J2_w0" to=":J2_c0" fromLane="0" toLane="0" dir="s" state="M"/>
    <connection from=":J2_w0" to="E16" fromLane="0" toLane="0" dir="s" state="M"/>
    <connection from="-E16" to=":J2_w1" fromLane="0" toLane="0" dir="s" state="M"/>
    <connection from=":J5_c0" to=":J5_w1" fromLane="0" toLane="0" dir="s" state="M"/>
    <connection from=":J5_w0" to=":J5_c0" fromLane="0" toLane="0" dir="s" state="M"/>
    <connection from=":J5_w0" to="E4" fromLane="0" toLane="0" dir="s" state="M"/>
    <connection from="-E4" to=":J5_w1" fromLane="0" toLane="0" dir="s" state="M"/>
    <connection from=":J6_c0" to=":J6_w0" fromLane="0" toLane="0" dir="s" state="M"/>
    <connection from=":J6_c1" to=":J6_w1" fromLane="0" toLane="0" dir="s" state="M"/>
    <connection from=":J6_c2" to=":J6_w2" fromLane="0" toLane="0" dir="s" state="M"/>
    <connection from=":J6_c3" to=":J6_w3" fromLane="0" toLane="0" dir="s" state="M"/>